108 
type  x  y  z
Ar   0.0  0.0  0.0
Ar   0.0  3.3333333333333335  3.3333333333333335
Ar   0.33333333333333337  0.0  3.3333333333333335
Ar   3.3333333333333335  3.3333333333333335  0.0
Ar   0.0  0.0  6.666666666666667
Ar   0.0  3.3333333333333335  10.0
Ar   0.33333333333333337  0.0  10.0
Ar   3.3333333333333335  3.3333333333333335  6.666666666666667
Ar   0.0  0.0  13.333333333333334
Ar   0.0  3.3333333333333335  16.666666666666668
Ar   0.33333333333333337  0.0  16.666666666666668
Ar   3.3333333333333335  3.3333333333333335  13.333333333333334
Ar   0.0  6.666666666666667  0.0
Ar   0.0  10.0  3.3333333333333335
Ar   0.33333333333333337  6.666666666666667  3.3333333333333335
Ar   3.3333333333333335  10.0  0.0
Ar   0.0  6.666666666666667  6.666666666666667
Ar   0.0  10.0  10.0
Ar   0.33333333333333337  6.666666666666667  10.0
Ar   3.3333333333333335  10.0  6.666666666666667
Ar   0.0  6.666666666666667  13.333333333333334
Ar   0.0  10.0  16.666666666666668
Ar   0.33333333333333337  6.666666666666667  16.666666666666668
Ar   3.3333333333333335  10.0  13.333333333333334
Ar   0.0  13.333333333333334  0.0
Ar   0.0  16.666666666666668  3.3333333333333335
Ar   0.33333333333333337  13.333333333333334  3.3333333333333335
Ar   3.3333333333333335  16.666666666666668  0.0
Ar   0.0  13.333333333333334  6.666666666666667
Ar   0.0  16.666666666666668  10.0
Ar   0.33333333333333337  13.333333333333334  10.0
Ar   3.3333333333333335  16.666666666666668  6.666666666666667
Ar   0.0  13.333333333333334  13.333333333333334
Ar   0.0  16.666666666666668  16.666666666666668
Ar   0.33333333333333337  13.333333333333334  16.666666666666668
Ar   3.3333333333333335  16.666666666666668  13.333333333333334
Ar   6.666666666666667  0.0  0.0
Ar   6.666666666666667  3.3333333333333335  3.3333333333333335
Ar   7.000000000000001  0.0  3.3333333333333335
Ar   10.0  3.3333333333333335  0.0
Ar   6.666666666666667  0.0  6.666666666666667
Ar   6.666666666666667  3.3333333333333335  10.0
Ar   7.000000000000001  0.0  10.0
Ar   10.0  3.3333333333333335  6.666666666666667
Ar   6.666666666666667  0.0  13.333333333333334
Ar   6.666666666666667  3.3333333333333335  16.666666666666668
Ar   7.000000000000001  0.0  16.666666666666668
Ar   10.0  3.3333333333333335  13.333333333333334
Ar   6.666666666666667  6.666666666666667  0.0
Ar   6.666666666666667  10.0  3.3333333333333335
Ar   7.000000000000001  6.666666666666667  3.3333333333333335
Ar   10.0  10.0  0.0
Ar   6.666666666666667  6.666666666666667  6.666666666666667
Ar   6.666666666666667  10.0  10.0
Ar   7.000000000000001  6.666666666666667  10.0
Ar   10.0  10.0  6.666666666666667
Ar   6.666666666666667  6.666666666666667  13.333333333333334
Ar   6.666666666666667  10.0  16.666666666666668
Ar   7.000000000000001  6.666666666666667  16.666666666666668
Ar   10.0  10.0  13.333333333333334
Ar   6.666666666666667  13.333333333333334  0.0
Ar   6.666666666666667  16.666666666666668  3.3333333333333335
Ar   7.000000000000001  13.333333333333334  3.3333333333333335
Ar   10.0  16.666666666666668  0.0
Ar   6.666666666666667  13.333333333333334  6.666666666666667
Ar   6.666666666666667  16.666666666666668  10.0
Ar   7.000000000000001  13.333333333333334  10.0
Ar   10.0  16.666666666666668  6.666666666666667
Ar   6.666666666666667  13.333333333333334  13.333333333333334
Ar   6.666666666666667  16.666666666666668  16.666666666666668
Ar   7.000000000000001  13.333333333333334  16.666666666666668
Ar   10.0  16.666666666666668  13.333333333333334
Ar   13.333333333333334  0.0  0.0
Ar   13.333333333333334  3.3333333333333335  3.3333333333333335
Ar   13.666666666666666  0.0  3.3333333333333335
Ar   16.666666666666668  3.3333333333333335  0.0
Ar   13.333333333333334  0.0  6.666666666666667
Ar   13.333333333333334  3.3333333333333335  10.0
Ar   13.666666666666666  0.0  10.0
Ar   16.666666666666668  3.3333333333333335  6.666666666666667
Ar   13.333333333333334  0.0  13.333333333333334
Ar   13.333333333333334  3.3333333333333335  16.666666666666668
Ar   13.666666666666666  0.0  16.666666666666668
Ar   16.666666666666668  3.3333333333333335  13.333333333333334
Ar   13.333333333333334  6.666666666666667  0.0
Ar   13.333333333333334  10.0  3.3333333333333335
Ar   13.666666666666666  6.666666666666667  3.3333333333333335
Ar   16.666666666666668  10.0  0.0
Ar   13.333333333333334  6.666666666666667  6.666666666666667
Ar   13.333333333333334  10.0  10.0
Ar   13.666666666666666  6.666666666666667  10.0
Ar   16.666666666666668  10.0  6.666666666666667
Ar   13.333333333333334  6.666666666666667  13.333333333333334
Ar   13.333333333333334  10.0  16.666666666666668
Ar   13.666666666666666  6.666666666666667  16.666666666666668
Ar   16.666666666666668  10.0  13.333333333333334
Ar   13.333333333333334  13.333333333333334  0.0
Ar   13.333333333333334  16.666666666666668  3.3333333333333335
Ar   13.666666666666666  13.333333333333334  3.3333333333333335
Ar   16.666666666666668  16.666666666666668  0.0
Ar   13.333333333333334  13.333333333333334  6.666666666666667
Ar   13.333333333333334  16.666666666666668  10.0
Ar   13.666666666666666  13.333333333333334  10.0
Ar   16.666666666666668  16.666666666666668  6.666666666666667
Ar   13.333333333333334  13.333333333333334  13.333333333333334
Ar   13.333333333333334  16.666666666666668  16.666666666666668
Ar   13.666666666666666  13.333333333333334  16.666666666666668
Ar   16.666666666666668  16.666666666666668  13.333333333333334
