1 
type  x  y  z
Ar   1.0  0.0  0.0
1 
type  x  y  z
Ar   1.01  0.0  0.0
1 
type  x  y  z
Ar   1.02  0.0  0.0
1 
type  x  y  z
Ar   1.03  0.0  0.0
1 
type  x  y  z
Ar   1.04  0.0  0.0
1 
type  x  y  z
Ar   1.05  0.0  0.0
1 
type  x  y  z
Ar   1.06  0.0  0.0
1 
type  x  y  z
Ar   1.07  0.0  0.0
1 
type  x  y  z
Ar   1.08  0.0  0.0
1 
type  x  y  z
Ar   1.09  0.0  0.0
1 
type  x  y  z
Ar   1.1  0.0  0.0
1 
type  x  y  z
Ar   1.11  0.0  0.0
1 
type  x  y  z
Ar   1.12  0.0  0.0
1 
type  x  y  z
Ar   1.1300000000000001  0.0  0.0
1 
type  x  y  z
Ar   1.1400000000000001  0.0  0.0
1 
type  x  y  z
Ar   1.1500000000000001  0.0  0.0
1 
type  x  y  z
Ar   1.1600000000000001  0.0  0.0
1 
type  x  y  z
Ar   1.1700000000000002  0.0  0.0
1 
type  x  y  z
Ar   1.1800000000000002  0.0  0.0
1 
type  x  y  z
Ar   1.1900000000000002  0.0  0.0
1 
type  x  y  z
Ar   1.2000000000000002  0.0  0.0
1 
type  x  y  z
Ar   1.2100000000000002  0.0  0.0
1 
type  x  y  z
Ar   1.2200000000000002  0.0  0.0
1 
type  x  y  z
Ar   1.2300000000000002  0.0  0.0
1 
type  x  y  z
Ar   1.2400000000000002  0.0  0.0
1 
type  x  y  z
Ar   1.2500000000000002  0.0  0.0
1 
type  x  y  z
Ar   1.2600000000000002  0.0  0.0
1 
type  x  y  z
Ar   1.2700000000000002  0.0  0.0
1 
type  x  y  z
Ar   1.2800000000000002  0.0  0.0
1 
type  x  y  z
Ar   1.2900000000000003  0.0  0.0
1 
type  x  y  z
Ar   1.3000000000000003  0.0  0.0
1 
type  x  y  z
Ar   1.3100000000000003  0.0  0.0
1 
type  x  y  z
Ar   1.3200000000000003  0.0  0.0
1 
type  x  y  z
Ar   1.3300000000000003  0.0  0.0
1 
type  x  y  z
Ar   1.3400000000000003  0.0  0.0
1 
type  x  y  z
Ar   1.3500000000000003  0.0  0.0
1 
type  x  y  z
Ar   1.3600000000000003  0.0  0.0
1 
type  x  y  z
Ar   1.3700000000000003  0.0  0.0
1 
type  x  y  z
Ar   1.3800000000000003  0.0  0.0
1 
type  x  y  z
Ar   1.3900000000000003  0.0  0.0
1 
type  x  y  z
Ar   1.4000000000000004  0.0  0.0
1 
type  x  y  z
Ar   1.4100000000000004  0.0  0.0
1 
type  x  y  z
Ar   1.4200000000000004  0.0  0.0
1 
type  x  y  z
Ar   1.4300000000000004  0.0  0.0
1 
type  x  y  z
Ar   1.4400000000000004  0.0  0.0
1 
type  x  y  z
Ar   1.4500000000000004  0.0  0.0
1 
type  x  y  z
Ar   1.4600000000000004  0.0  0.0
1 
type  x  y  z
Ar   1.4700000000000004  0.0  0.0
1 
type  x  y  z
Ar   1.4800000000000004  0.0  0.0
1 
type  x  y  z
Ar   1.4900000000000004  0.0  0.0
1 
type  x  y  z
Ar   1.5000000000000004  0.0  0.0
1 
type  x  y  z
Ar   1.5100000000000005  0.0  0.0
1 
type  x  y  z
Ar   1.5200000000000005  0.0  0.0
1 
type  x  y  z
Ar   1.5300000000000005  0.0  0.0
1 
type  x  y  z
Ar   1.5400000000000005  0.0  0.0
1 
type  x  y  z
Ar   1.5500000000000005  0.0  0.0
1 
type  x  y  z
Ar   1.5600000000000005  0.0  0.0
1 
type  x  y  z
Ar   1.5700000000000005  0.0  0.0
1 
type  x  y  z
Ar   1.5800000000000005  0.0  0.0
1 
type  x  y  z
Ar   1.5900000000000005  0.0  0.0
1 
type  x  y  z
Ar   1.6000000000000005  0.0  0.0
1 
type  x  y  z
Ar   1.6100000000000005  0.0  0.0
1 
type  x  y  z
Ar   1.6200000000000006  0.0  0.0
1 
type  x  y  z
Ar   1.6300000000000006  0.0  0.0
1 
type  x  y  z
Ar   1.6400000000000006  0.0  0.0
1 
type  x  y  z
Ar   1.6500000000000006  0.0  0.0
1 
type  x  y  z
Ar   1.6600000000000006  0.0  0.0
1 
type  x  y  z
Ar   1.6700000000000006  0.0  0.0
1 
type  x  y  z
Ar   1.6800000000000006  0.0  0.0
1 
type  x  y  z
Ar   1.6900000000000006  0.0  0.0
1 
type  x  y  z
Ar   1.7000000000000006  0.0  0.0
1 
type  x  y  z
Ar   1.7100000000000006  0.0  0.0
1 
type  x  y  z
Ar   1.7200000000000006  0.0  0.0
1 
type  x  y  z
Ar   1.7300000000000006  0.0  0.0
1 
type  x  y  z
Ar   1.7400000000000007  0.0  0.0
1 
type  x  y  z
Ar   1.7500000000000007  0.0  0.0
1 
type  x  y  z
Ar   1.7600000000000007  0.0  0.0
1 
type  x  y  z
Ar   1.7700000000000007  0.0  0.0
1 
type  x  y  z
Ar   1.7800000000000007  0.0  0.0
1 
type  x  y  z
Ar   1.7900000000000007  0.0  0.0
1 
type  x  y  z
Ar   1.8000000000000007  0.0  0.0
1 
type  x  y  z
Ar   1.8100000000000007  0.0  0.0
1 
type  x  y  z
Ar   1.8200000000000007  0.0  0.0
1 
type  x  y  z
Ar   1.8300000000000007  0.0  0.0
1 
type  x  y  z
Ar   1.8400000000000007  0.0  0.0
1 
type  x  y  z
Ar   1.8500000000000008  0.0  0.0
1 
type  x  y  z
Ar   1.8600000000000008  0.0  0.0
1 
type  x  y  z
Ar   1.8700000000000008  0.0  0.0
1 
type  x  y  z
Ar   1.8800000000000008  0.0  0.0
1 
type  x  y  z
Ar   1.8900000000000008  0.0  0.0
1 
type  x  y  z
Ar   1.9000000000000008  0.0  0.0
1 
type  x  y  z
Ar   1.9100000000000008  0.0  0.0
1 
type  x  y  z
Ar   1.9200000000000008  0.0  0.0
1 
type  x  y  z
Ar   1.9300000000000008  0.0  0.0
1 
type  x  y  z
Ar   1.9400000000000008  0.0  0.0
1 
type  x  y  z
Ar   1.9500000000000008  0.0  0.0
1 
type  x  y  z
Ar   1.9600000000000009  0.0  0.0
1 
type  x  y  z
Ar   1.9700000000000009  0.0  0.0
1 
type  x  y  z
Ar   1.9800000000000009  0.0  0.0
1 
type  x  y  z
Ar   1.9900000000000009  0.0  0.0
1 
type  x  y  z
Ar   8.881784197001252e-16  0.0  0.0
1 
type  x  y  z
Ar   0.010000000000000888  0.0  0.0
1 
type  x  y  z
Ar   0.02000000000000089  0.0  0.0
1 
type  x  y  z
Ar   0.030000000000000887  0.0  0.0
1 
type  x  y  z
Ar   0.04000000000000089  0.0  0.0
1 
type  x  y  z
Ar   0.05000000000000089  0.0  0.0
1 
type  x  y  z
Ar   0.06000000000000089  0.0  0.0
1 
type  x  y  z
Ar   0.0700000000000009  0.0  0.0
1 
type  x  y  z
Ar   0.08000000000000089  0.0  0.0
1 
type  x  y  z
Ar   0.09000000000000088  0.0  0.0
1 
type  x  y  z
Ar   0.10000000000000088  0.0  0.0
1 
type  x  y  z
Ar   0.11000000000000087  0.0  0.0
1 
type  x  y  z
Ar   0.12000000000000087  0.0  0.0
1 
type  x  y  z
Ar   0.13000000000000086  0.0  0.0
1 
type  x  y  z
Ar   0.14000000000000087  0.0  0.0
1 
type  x  y  z
Ar   0.15000000000000088  0.0  0.0
1 
type  x  y  z
Ar   0.1600000000000009  0.0  0.0
1 
type  x  y  z
Ar   0.1700000000000009  0.0  0.0
1 
type  x  y  z
Ar   0.1800000000000009  0.0  0.0
1 
type  x  y  z
Ar   0.19000000000000092  0.0  0.0
1 
type  x  y  z
Ar   0.20000000000000093  0.0  0.0
1 
type  x  y  z
Ar   0.21000000000000094  0.0  0.0
1 
type  x  y  z
Ar   0.22000000000000094  0.0  0.0
1 
type  x  y  z
Ar   0.23000000000000095  0.0  0.0
1 
type  x  y  z
Ar   0.24000000000000096  0.0  0.0
1 
type  x  y  z
Ar   0.25000000000000094  0.0  0.0
1 
type  x  y  z
Ar   0.26000000000000095  0.0  0.0
1 
type  x  y  z
Ar   0.27000000000000096  0.0  0.0
1 
type  x  y  z
Ar   0.28000000000000097  0.0  0.0
1 
type  x  y  z
Ar   0.290000000000001  0.0  0.0
1 
type  x  y  z
Ar   0.300000000000001  0.0  0.0
1 
type  x  y  z
Ar   0.310000000000001  0.0  0.0
1 
type  x  y  z
Ar   0.320000000000001  0.0  0.0
1 
type  x  y  z
Ar   0.330000000000001  0.0  0.0
1 
type  x  y  z
Ar   0.340000000000001  0.0  0.0
1 
type  x  y  z
Ar   0.35000000000000103  0.0  0.0
1 
type  x  y  z
Ar   0.36000000000000104  0.0  0.0
1 
type  x  y  z
Ar   0.37000000000000105  0.0  0.0
1 
type  x  y  z
Ar   0.38000000000000106  0.0  0.0
1 
type  x  y  z
Ar   0.39000000000000107  0.0  0.0
1 
type  x  y  z
Ar   0.4000000000000011  0.0  0.0
1 
type  x  y  z
Ar   0.4100000000000011  0.0  0.0
1 
type  x  y  z
Ar   0.4200000000000011  0.0  0.0
1 
type  x  y  z
Ar   0.4300000000000011  0.0  0.0
1 
type  x  y  z
Ar   0.4400000000000011  0.0  0.0
1 
type  x  y  z
Ar   0.4500000000000011  0.0  0.0
1 
type  x  y  z
Ar   0.46000000000000113  0.0  0.0
1 
type  x  y  z
Ar   0.47000000000000114  0.0  0.0
1 
type  x  y  z
Ar   0.48000000000000115  0.0  0.0
1 
type  x  y  z
Ar   0.49000000000000116  0.0  0.0
1 
type  x  y  z
Ar   0.5000000000000011  0.0  0.0
1 
type  x  y  z
Ar   0.5100000000000011  0.0  0.0
1 
type  x  y  z
Ar   0.5200000000000011  0.0  0.0
1 
type  x  y  z
Ar   0.5300000000000011  0.0  0.0
1 
type  x  y  z
Ar   0.5400000000000011  0.0  0.0
1 
type  x  y  z
Ar   0.5500000000000012  0.0  0.0
1 
type  x  y  z
Ar   0.5600000000000012  0.0  0.0
1 
type  x  y  z
Ar   0.5700000000000012  0.0  0.0
1 
type  x  y  z
Ar   0.5800000000000012  0.0  0.0
1 
type  x  y  z
Ar   0.5900000000000012  0.0  0.0
1 
type  x  y  z
Ar   0.6000000000000012  0.0  0.0
1 
type  x  y  z
Ar   0.6100000000000012  0.0  0.0
1 
type  x  y  z
Ar   0.6200000000000012  0.0  0.0
1 
type  x  y  z
Ar   0.6300000000000012  0.0  0.0
1 
type  x  y  z
Ar   0.6400000000000012  0.0  0.0
1 
type  x  y  z
Ar   0.6500000000000012  0.0  0.0
1 
type  x  y  z
Ar   0.6600000000000013  0.0  0.0
1 
type  x  y  z
Ar   0.6700000000000013  0.0  0.0
1 
type  x  y  z
Ar   0.6800000000000013  0.0  0.0
1 
type  x  y  z
Ar   0.6900000000000013  0.0  0.0
1 
type  x  y  z
Ar   0.7000000000000013  0.0  0.0
1 
type  x  y  z
Ar   0.7100000000000013  0.0  0.0
1 
type  x  y  z
Ar   0.7200000000000013  0.0  0.0
1 
type  x  y  z
Ar   0.7300000000000013  0.0  0.0
1 
type  x  y  z
Ar   0.7400000000000013  0.0  0.0
1 
type  x  y  z
Ar   0.7500000000000013  0.0  0.0
1 
type  x  y  z
Ar   0.7600000000000013  0.0  0.0
1 
type  x  y  z
Ar   0.7700000000000014  0.0  0.0
1 
type  x  y  z
Ar   0.7800000000000014  0.0  0.0
1 
type  x  y  z
Ar   0.7900000000000014  0.0  0.0
1 
type  x  y  z
Ar   0.8000000000000014  0.0  0.0
1 
type  x  y  z
Ar   0.8100000000000014  0.0  0.0
1 
type  x  y  z
Ar   0.8200000000000014  0.0  0.0
1 
type  x  y  z
Ar   0.8300000000000014  0.0  0.0
1 
type  x  y  z
Ar   0.8400000000000014  0.0  0.0
1 
type  x  y  z
Ar   0.8500000000000014  0.0  0.0
1 
type  x  y  z
Ar   0.8600000000000014  0.0  0.0
1 
type  x  y  z
Ar   0.8700000000000014  0.0  0.0
1 
type  x  y  z
Ar   0.8800000000000014  0.0  0.0
1 
type  x  y  z
Ar   0.8900000000000015  0.0  0.0
1 
type  x  y  z
Ar   0.9000000000000015  0.0  0.0
1 
type  x  y  z
Ar   0.9100000000000015  0.0  0.0
1 
type  x  y  z
Ar   0.9200000000000015  0.0  0.0
1 
type  x  y  z
Ar   0.9300000000000015  0.0  0.0
1 
type  x  y  z
Ar   0.9400000000000015  0.0  0.0
1 
type  x  y  z
Ar   0.9500000000000015  0.0  0.0
1 
type  x  y  z
Ar   0.9600000000000015  0.0  0.0
1 
type  x  y  z
Ar   0.9700000000000015  0.0  0.0
1 
type  x  y  z
Ar   0.9800000000000015  0.0  0.0
1 
type  x  y  z
Ar   0.9900000000000015  0.0  0.0
1 
type  x  y  z
Ar   1.0000000000000016  0.0  0.0
1 
type  x  y  z
Ar   1.0100000000000016  0.0  0.0
1 
type  x  y  z
Ar   1.0200000000000016  0.0  0.0
1 
type  x  y  z
Ar   1.0300000000000016  0.0  0.0
1 
type  x  y  z
Ar   1.0400000000000016  0.0  0.0
1 
type  x  y  z
Ar   1.0500000000000016  0.0  0.0
1 
type  x  y  z
Ar   1.0600000000000016  0.0  0.0
1 
type  x  y  z
Ar   1.0700000000000016  0.0  0.0
1 
type  x  y  z
Ar   1.0800000000000016  0.0  0.0
1 
type  x  y  z
Ar   1.0900000000000016  0.0  0.0
1 
type  x  y  z
Ar   1.1000000000000016  0.0  0.0
1 
type  x  y  z
Ar   1.1100000000000017  0.0  0.0
1 
type  x  y  z
Ar   1.1200000000000017  0.0  0.0
1 
type  x  y  z
Ar   1.1300000000000017  0.0  0.0
1 
type  x  y  z
Ar   1.1400000000000017  0.0  0.0
1 
type  x  y  z
Ar   1.1500000000000017  0.0  0.0
1 
type  x  y  z
Ar   1.1600000000000017  0.0  0.0
1 
type  x  y  z
Ar   1.1700000000000017  0.0  0.0
1 
type  x  y  z
Ar   1.1800000000000017  0.0  0.0
1 
type  x  y  z
Ar   1.1900000000000017  0.0  0.0
1 
type  x  y  z
Ar   1.2000000000000017  0.0  0.0
1 
type  x  y  z
Ar   1.2100000000000017  0.0  0.0
1 
type  x  y  z
Ar   1.2200000000000017  0.0  0.0
1 
type  x  y  z
Ar   1.2300000000000018  0.0  0.0
1 
type  x  y  z
Ar   1.2400000000000018  0.0  0.0
1 
type  x  y  z
Ar   1.2500000000000018  0.0  0.0
1 
type  x  y  z
Ar   1.2600000000000018  0.0  0.0
1 
type  x  y  z
Ar   1.2700000000000018  0.0  0.0
1 
type  x  y  z
Ar   1.2800000000000018  0.0  0.0
1 
type  x  y  z
Ar   1.2900000000000018  0.0  0.0
1 
type  x  y  z
Ar   1.3000000000000018  0.0  0.0
1 
type  x  y  z
Ar   1.3100000000000018  0.0  0.0
1 
type  x  y  z
Ar   1.3200000000000018  0.0  0.0
1 
type  x  y  z
Ar   1.3300000000000018  0.0  0.0
1 
type  x  y  z
Ar   1.3400000000000019  0.0  0.0
1 
type  x  y  z
Ar   1.3500000000000019  0.0  0.0
1 
type  x  y  z
Ar   1.3600000000000019  0.0  0.0
1 
type  x  y  z
Ar   1.3700000000000019  0.0  0.0
1 
type  x  y  z
Ar   1.380000000000002  0.0  0.0
1 
type  x  y  z
Ar   1.390000000000002  0.0  0.0
1 
type  x  y  z
Ar   1.400000000000002  0.0  0.0
1 
type  x  y  z
Ar   1.410000000000002  0.0  0.0
1 
type  x  y  z
Ar   1.420000000000002  0.0  0.0
1 
type  x  y  z
Ar   1.430000000000002  0.0  0.0
1 
type  x  y  z
Ar   1.440000000000002  0.0  0.0
1 
type  x  y  z
Ar   1.450000000000002  0.0  0.0
1 
type  x  y  z
Ar   1.460000000000002  0.0  0.0
1 
type  x  y  z
Ar   1.470000000000002  0.0  0.0
1 
type  x  y  z
Ar   1.480000000000002  0.0  0.0
1 
type  x  y  z
Ar   1.490000000000002  0.0  0.0
1 
type  x  y  z
Ar   1.500000000000002  0.0  0.0
1 
type  x  y  z
Ar   1.510000000000002  0.0  0.0
1 
type  x  y  z
Ar   1.520000000000002  0.0  0.0
1 
type  x  y  z
Ar   1.530000000000002  0.0  0.0
1 
type  x  y  z
Ar   1.540000000000002  0.0  0.0
1 
type  x  y  z
Ar   1.550000000000002  0.0  0.0
1 
type  x  y  z
Ar   1.560000000000002  0.0  0.0
1 
type  x  y  z
Ar   1.570000000000002  0.0  0.0
1 
type  x  y  z
Ar   1.580000000000002  0.0  0.0
1 
type  x  y  z
Ar   1.590000000000002  0.0  0.0
1 
type  x  y  z
Ar   1.600000000000002  0.0  0.0
1 
type  x  y  z
Ar   1.610000000000002  0.0  0.0
1 
type  x  y  z
Ar   1.620000000000002  0.0  0.0
1 
type  x  y  z
Ar   1.6300000000000021  0.0  0.0
1 
type  x  y  z
Ar   1.6400000000000021  0.0  0.0
1 
type  x  y  z
Ar   1.6500000000000021  0.0  0.0
1 
type  x  y  z
Ar   1.6600000000000021  0.0  0.0
1 
type  x  y  z
Ar   1.6700000000000021  0.0  0.0
1 
type  x  y  z
Ar   1.6800000000000022  0.0  0.0
1 
type  x  y  z
Ar   1.6900000000000022  0.0  0.0
1 
type  x  y  z
Ar   1.7000000000000022  0.0  0.0
1 
type  x  y  z
Ar   1.7100000000000022  0.0  0.0
1 
type  x  y  z
Ar   1.7200000000000022  0.0  0.0
1 
type  x  y  z
Ar   1.7300000000000022  0.0  0.0
1 
type  x  y  z
Ar   1.7400000000000022  0.0  0.0
1 
type  x  y  z
Ar   1.7500000000000022  0.0  0.0
1 
type  x  y  z
Ar   1.7600000000000022  0.0  0.0
1 
type  x  y  z
Ar   1.7700000000000022  0.0  0.0
1 
type  x  y  z
Ar   1.7800000000000022  0.0  0.0
1 
type  x  y  z
Ar   1.7900000000000023  0.0  0.0
1 
type  x  y  z
Ar   1.8000000000000023  0.0  0.0
1 
type  x  y  z
Ar   1.8100000000000023  0.0  0.0
1 
type  x  y  z
Ar   1.8200000000000023  0.0  0.0
1 
type  x  y  z
Ar   1.8300000000000023  0.0  0.0
1 
type  x  y  z
Ar   1.8400000000000023  0.0  0.0
1 
type  x  y  z
Ar   1.8500000000000023  0.0  0.0
1 
type  x  y  z
Ar   1.8600000000000023  0.0  0.0
1 
type  x  y  z
Ar   1.8700000000000023  0.0  0.0
1 
type  x  y  z
Ar   1.8800000000000023  0.0  0.0
1 
type  x  y  z
Ar   1.8900000000000023  0.0  0.0
1 
type  x  y  z
Ar   1.9000000000000024  0.0  0.0
1 
type  x  y  z
Ar   1.9100000000000024  0.0  0.0
1 
type  x  y  z
Ar   1.9200000000000024  0.0  0.0
1 
type  x  y  z
Ar   1.9300000000000024  0.0  0.0
1 
type  x  y  z
Ar   1.9400000000000024  0.0  0.0
1 
type  x  y  z
Ar   1.9500000000000024  0.0  0.0
1 
type  x  y  z
Ar   1.9600000000000024  0.0  0.0
1 
type  x  y  z
Ar   1.9700000000000024  0.0  0.0
1 
type  x  y  z
Ar   1.9800000000000024  0.0  0.0
1 
type  x  y  z
Ar   1.9900000000000024  0.0  0.0
1 
type  x  y  z
Ar   2.220446049250313e-15  0.0  0.0
1 
type  x  y  z
Ar   0.01000000000000222  0.0  0.0
1 
type  x  y  z
Ar   0.02000000000000222  0.0  0.0
1 
type  x  y  z
Ar   0.03000000000000222  0.0  0.0
1 
type  x  y  z
Ar   0.04000000000000222  0.0  0.0
1 
type  x  y  z
Ar   0.05000000000000222  0.0  0.0
1 
type  x  y  z
Ar   0.060000000000002225  0.0  0.0
1 
type  x  y  z
Ar   0.07000000000000223  0.0  0.0
1 
type  x  y  z
Ar   0.08000000000000222  0.0  0.0
1 
type  x  y  z
Ar   0.09000000000000222  0.0  0.0
1 
type  x  y  z
Ar   0.10000000000000221  0.0  0.0
1 
type  x  y  z
Ar   0.11000000000000221  0.0  0.0
1 
type  x  y  z
Ar   0.1200000000000022  0.0  0.0
1 
type  x  y  z
Ar   0.1300000000000022  0.0  0.0
1 
type  x  y  z
Ar   0.1400000000000022  0.0  0.0
1 
type  x  y  z
Ar   0.15000000000000221  0.0  0.0
1 
type  x  y  z
Ar   0.16000000000000222  0.0  0.0
1 
type  x  y  z
Ar   0.17000000000000223  0.0  0.0
1 
type  x  y  z
Ar   0.18000000000000224  0.0  0.0
1 
type  x  y  z
Ar   0.19000000000000225  0.0  0.0
1 
type  x  y  z
Ar   0.20000000000000226  0.0  0.0
1 
type  x  y  z
Ar   0.21000000000000227  0.0  0.0
1 
type  x  y  z
Ar   0.22000000000000228  0.0  0.0
1 
type  x  y  z
Ar   0.23000000000000229  0.0  0.0
1 
type  x  y  z
Ar   0.2400000000000023  0.0  0.0
1 
type  x  y  z
Ar   0.2500000000000023  0.0  0.0
1 
type  x  y  z
Ar   0.2600000000000023  0.0  0.0
1 
type  x  y  z
Ar   0.2700000000000023  0.0  0.0
1 
type  x  y  z
Ar   0.2800000000000023  0.0  0.0
1 
type  x  y  z
Ar   0.2900000000000023  0.0  0.0
1 
type  x  y  z
Ar   0.3000000000000023  0.0  0.0
1 
type  x  y  z
Ar   0.31000000000000233  0.0  0.0
1 
type  x  y  z
Ar   0.32000000000000234  0.0  0.0
1 
type  x  y  z
Ar   0.33000000000000235  0.0  0.0
1 
type  x  y  z
Ar   0.34000000000000236  0.0  0.0
1 
type  x  y  z
Ar   0.35000000000000236  0.0  0.0
1 
type  x  y  z
Ar   0.3600000000000024  0.0  0.0
1 
type  x  y  z
Ar   0.3700000000000024  0.0  0.0
1 
type  x  y  z
Ar   0.3800000000000024  0.0  0.0
1 
type  x  y  z
Ar   0.3900000000000024  0.0  0.0
1 
type  x  y  z
Ar   0.4000000000000024  0.0  0.0
1 
type  x  y  z
Ar   0.4100000000000024  0.0  0.0
1 
type  x  y  z
Ar   0.4200000000000024  0.0  0.0
1 
type  x  y  z
Ar   0.43000000000000244  0.0  0.0
1 
type  x  y  z
Ar   0.44000000000000244  0.0  0.0
1 
type  x  y  z
Ar   0.45000000000000245  0.0  0.0
1 
type  x  y  z
Ar   0.46000000000000246  0.0  0.0
1 
type  x  y  z
Ar   0.47000000000000247  0.0  0.0
1 
type  x  y  z
Ar   0.4800000000000025  0.0  0.0
1 
type  x  y  z
Ar   0.4900000000000025  0.0  0.0
1 
type  x  y  z
Ar   0.5000000000000024  0.0  0.0
1 
type  x  y  z
Ar   0.5100000000000025  0.0  0.0
1 
type  x  y  z
Ar   0.5200000000000025  0.0  0.0
1 
type  x  y  z
Ar   0.5300000000000025  0.0  0.0
1 
type  x  y  z
Ar   0.5400000000000025  0.0  0.0
1 
type  x  y  z
Ar   0.5500000000000025  0.0  0.0
1 
type  x  y  z
Ar   0.5600000000000025  0.0  0.0
1 
type  x  y  z
Ar   0.5700000000000025  0.0  0.0
1 
type  x  y  z
Ar   0.5800000000000025  0.0  0.0
1 
type  x  y  z
Ar   0.5900000000000025  0.0  0.0
1 
type  x  y  z
Ar   0.6000000000000025  0.0  0.0
1 
type  x  y  z
Ar   0.6100000000000025  0.0  0.0
1 
type  x  y  z
Ar   0.6200000000000025  0.0  0.0
1 
type  x  y  z
Ar   0.6300000000000026  0.0  0.0
1 
type  x  y  z
Ar   0.6400000000000026  0.0  0.0
1 
type  x  y  z
Ar   0.6500000000000026  0.0  0.0
1 
type  x  y  z
Ar   0.6600000000000026  0.0  0.0
1 
type  x  y  z
Ar   0.6700000000000026  0.0  0.0
1 
type  x  y  z
Ar   0.6800000000000026  0.0  0.0
1 
type  x  y  z
Ar   0.6900000000000026  0.0  0.0
1 
type  x  y  z
Ar   0.7000000000000026  0.0  0.0
1 
type  x  y  z
Ar   0.7100000000000026  0.0  0.0
1 
type  x  y  z
Ar   0.7200000000000026  0.0  0.0
1 
type  x  y  z
Ar   0.7300000000000026  0.0  0.0
1 
type  x  y  z
Ar   0.7400000000000027  0.0  0.0
1 
type  x  y  z
Ar   0.7500000000000027  0.0  0.0
1 
type  x  y  z
Ar   0.7600000000000027  0.0  0.0
1 
type  x  y  z
Ar   0.7700000000000027  0.0  0.0
1 
type  x  y  z
Ar   0.7800000000000027  0.0  0.0
1 
type  x  y  z
Ar   0.7900000000000027  0.0  0.0
1 
type  x  y  z
Ar   0.8000000000000027  0.0  0.0
1 
type  x  y  z
Ar   0.8100000000000027  0.0  0.0
1 
type  x  y  z
Ar   0.8200000000000027  0.0  0.0
1 
type  x  y  z
Ar   0.8300000000000027  0.0  0.0
1 
type  x  y  z
Ar   0.8400000000000027  0.0  0.0
1 
type  x  y  z
Ar   0.8500000000000028  0.0  0.0
1 
type  x  y  z
Ar   0.8600000000000028  0.0  0.0
1 
type  x  y  z
Ar   0.8700000000000028  0.0  0.0
1 
type  x  y  z
Ar   0.8800000000000028  0.0  0.0
1 
type  x  y  z
Ar   0.8900000000000028  0.0  0.0
1 
type  x  y  z
Ar   0.9000000000000028  0.0  0.0
1 
type  x  y  z
Ar   0.9100000000000028  0.0  0.0
1 
type  x  y  z
Ar   0.9200000000000028  0.0  0.0
1 
type  x  y  z
Ar   0.9300000000000028  0.0  0.0
1 
type  x  y  z
Ar   0.9400000000000028  0.0  0.0
1 
type  x  y  z
Ar   0.9500000000000028  0.0  0.0
1 
type  x  y  z
Ar   0.9600000000000029  0.0  0.0
1 
type  x  y  z
Ar   0.9700000000000029  0.0  0.0
1 
type  x  y  z
Ar   0.9800000000000029  0.0  0.0
1 
type  x  y  z
Ar   0.9900000000000029  0.0  0.0
1 
type  x  y  z
Ar   1.0000000000000029  0.0  0.0
1 
type  x  y  z
Ar   1.010000000000003  0.0  0.0
1 
type  x  y  z
Ar   1.020000000000003  0.0  0.0
1 
type  x  y  z
Ar   1.030000000000003  0.0  0.0
1 
type  x  y  z
Ar   1.040000000000003  0.0  0.0
1 
type  x  y  z
Ar   1.050000000000003  0.0  0.0
1 
type  x  y  z
Ar   1.060000000000003  0.0  0.0
1 
type  x  y  z
Ar   1.070000000000003  0.0  0.0
1 
type  x  y  z
Ar   1.080000000000003  0.0  0.0
1 
type  x  y  z
Ar   1.090000000000003  0.0  0.0
1 
type  x  y  z
Ar   1.100000000000003  0.0  0.0
1 
type  x  y  z
Ar   1.110000000000003  0.0  0.0
1 
type  x  y  z
Ar   1.120000000000003  0.0  0.0
1 
type  x  y  z
Ar   1.130000000000003  0.0  0.0
1 
type  x  y  z
Ar   1.140000000000003  0.0  0.0
1 
type  x  y  z
Ar   1.150000000000003  0.0  0.0
1 
type  x  y  z
Ar   1.160000000000003  0.0  0.0
1 
type  x  y  z
Ar   1.170000000000003  0.0  0.0
1 
type  x  y  z
Ar   1.180000000000003  0.0  0.0
1 
type  x  y  z
Ar   1.190000000000003  0.0  0.0
1 
type  x  y  z
Ar   1.200000000000003  0.0  0.0
1 
type  x  y  z
Ar   1.210000000000003  0.0  0.0
1 
type  x  y  z
Ar   1.220000000000003  0.0  0.0
1 
type  x  y  z
Ar   1.230000000000003  0.0  0.0
1 
type  x  y  z
Ar   1.240000000000003  0.0  0.0
1 
type  x  y  z
Ar   1.250000000000003  0.0  0.0
1 
type  x  y  z
Ar   1.2600000000000031  0.0  0.0
1 
type  x  y  z
Ar   1.2700000000000031  0.0  0.0
1 
type  x  y  z
Ar   1.2800000000000031  0.0  0.0
1 
type  x  y  z
Ar   1.2900000000000031  0.0  0.0
1 
type  x  y  z
Ar   1.3000000000000032  0.0  0.0
1 
type  x  y  z
Ar   1.3100000000000032  0.0  0.0
1 
type  x  y  z
Ar   1.3200000000000032  0.0  0.0
1 
type  x  y  z
Ar   1.3300000000000032  0.0  0.0
1 
type  x  y  z
Ar   1.3400000000000032  0.0  0.0
1 
type  x  y  z
Ar   1.3500000000000032  0.0  0.0
1 
type  x  y  z
Ar   1.3600000000000032  0.0  0.0
1 
type  x  y  z
Ar   1.3700000000000032  0.0  0.0
1 
type  x  y  z
Ar   1.3800000000000032  0.0  0.0
1 
type  x  y  z
Ar   1.3900000000000032  0.0  0.0
1 
type  x  y  z
Ar   1.4000000000000032  0.0  0.0
1 
type  x  y  z
Ar   1.4100000000000033  0.0  0.0
1 
type  x  y  z
Ar   1.4200000000000033  0.0  0.0
1 
type  x  y  z
Ar   1.4300000000000033  0.0  0.0
1 
type  x  y  z
Ar   1.4400000000000033  0.0  0.0
1 
type  x  y  z
Ar   1.4500000000000033  0.0  0.0
1 
type  x  y  z
Ar   1.4600000000000033  0.0  0.0
1 
type  x  y  z
Ar   1.4700000000000033  0.0  0.0
1 
type  x  y  z
Ar   1.4800000000000033  0.0  0.0
1 
type  x  y  z
Ar   1.4900000000000033  0.0  0.0
1 
type  x  y  z
Ar   1.5000000000000033  0.0  0.0
1 
type  x  y  z
Ar   1.5100000000000033  0.0  0.0
1 
type  x  y  z
Ar   1.5200000000000033  0.0  0.0
1 
type  x  y  z
Ar   1.5300000000000034  0.0  0.0
1 
type  x  y  z
Ar   1.5400000000000034  0.0  0.0
1 
type  x  y  z
Ar   1.5500000000000034  0.0  0.0
1 
type  x  y  z
Ar   1.5600000000000034  0.0  0.0
1 
type  x  y  z
Ar   1.5700000000000034  0.0  0.0
1 
type  x  y  z
Ar   1.5800000000000034  0.0  0.0
1 
type  x  y  z
Ar   1.5900000000000034  0.0  0.0
1 
type  x  y  z
Ar   1.6000000000000034  0.0  0.0
1 
type  x  y  z
Ar   1.6100000000000034  0.0  0.0
1 
type  x  y  z
Ar   1.6200000000000034  0.0  0.0
1 
type  x  y  z
Ar   1.6300000000000034  0.0  0.0
1 
type  x  y  z
Ar   1.6400000000000035  0.0  0.0
1 
type  x  y  z
Ar   1.6500000000000035  0.0  0.0
1 
type  x  y  z
Ar   1.6600000000000035  0.0  0.0
1 
type  x  y  z
Ar   1.6700000000000035  0.0  0.0
1 
type  x  y  z
Ar   1.6800000000000035  0.0  0.0
1 
type  x  y  z
Ar   1.6900000000000035  0.0  0.0
1 
type  x  y  z
Ar   1.7000000000000035  0.0  0.0
1 
type  x  y  z
Ar   1.7100000000000035  0.0  0.0
1 
type  x  y  z
Ar   1.7200000000000035  0.0  0.0
1 
type  x  y  z
Ar   1.7300000000000035  0.0  0.0
1 
type  x  y  z
Ar   1.7400000000000035  0.0  0.0
1 
type  x  y  z
Ar   1.7500000000000036  0.0  0.0
1 
type  x  y  z
Ar   1.7600000000000036  0.0  0.0
1 
type  x  y  z
Ar   1.7700000000000036  0.0  0.0
1 
type  x  y  z
Ar   1.7800000000000036  0.0  0.0
1 
type  x  y  z
Ar   1.7900000000000036  0.0  0.0
1 
type  x  y  z
Ar   1.8000000000000036  0.0  0.0
1 
type  x  y  z
Ar   1.8100000000000036  0.0  0.0
1 
type  x  y  z
Ar   1.8200000000000036  0.0  0.0
1 
type  x  y  z
Ar   1.8300000000000036  0.0  0.0
1 
type  x  y  z
Ar   1.8400000000000036  0.0  0.0
1 
type  x  y  z
Ar   1.8500000000000036  0.0  0.0
1 
type  x  y  z
Ar   1.8600000000000037  0.0  0.0
1 
type  x  y  z
Ar   1.8700000000000037  0.0  0.0
1 
type  x  y  z
Ar   1.8800000000000037  0.0  0.0
1 
type  x  y  z
Ar   1.8900000000000037  0.0  0.0
1 
type  x  y  z
Ar   1.9000000000000037  0.0  0.0
1 
type  x  y  z
Ar   1.9100000000000037  0.0  0.0
1 
type  x  y  z
Ar   1.9200000000000037  0.0  0.0
1 
type  x  y  z
Ar   1.9300000000000037  0.0  0.0
1 
type  x  y  z
Ar   1.9400000000000037  0.0  0.0
1 
type  x  y  z
Ar   1.9500000000000037  0.0  0.0
1 
type  x  y  z
Ar   1.9600000000000037  0.0  0.0
1 
type  x  y  z
Ar   1.9700000000000037  0.0  0.0
1 
type  x  y  z
Ar   1.9800000000000038  0.0  0.0
1 
type  x  y  z
Ar   1.9900000000000038  0.0  0.0
